FoamFile
{
    version 2.0;
    format ascii;
    class dictionary;
    location "system";
    object controlDict;
}

application ferrumRun;
solver incompressibleFluid;
startFrom startTime;
startTime 0;
stopAt endTime;
endTime 1;
deltaT 0.1;
writeControl timeStep;
writeInterval 5;
