FoamFile
{
    version 2.0;
    format ascii;
    class dictionary;
    location "system";
    object controlDict;
}

application ferrumSolver;
startFrom startTime;
startTime 0;
stopAt endTime;
endTime 500;
deltaT 1;
writeControl timeStep;
writeInterval 100;
